<routes xmlns:xsi="http://www.w3.org/2001/XMLSchema-instance" xsi:noNamespaceSchemaLocation="http://sumo.dlr.de/xsd/routes_file.xsd">
    <!-- Define a standard vehicle type -->
    <vType id="car" accel="2.6" decel="4.5" sigma="0.5" length="5" maxSpeed="13.89"/>

    <!-- Phase 1: Morning Rush (0 - 1800s) -->
    <!-- Heavy E->W -->
    <flow id="flow_E2W_heavy" type="car" begin="0" end="1800" vehsPerHour="1600" from="E2TL" to="TL2W" departLane="random" departSpeed="max"/>
    <!-- Moderate N->S -->
    <flow id="flow_N2S_mod1" type="car" begin="0" end="1800" vehsPerHour="600" from="N2TL" to="TL2S" departLane="random" departSpeed="max"/>
    <!-- Moderate S->N -->
    <flow id="flow_S2N_mod1" type="car" begin="0" end="1800" vehsPerHour="600" from="S2TL" to="TL2N" departLane="random" departSpeed="max"/>
    <!-- Light W->E -->
    <flow id="flow_W2E_light1" type="car" begin="0" end="1800" vehsPerHour="300" from="W2TL" to="TL2E" departLane="random" departSpeed="max"/>
    <!-- Light Turns -->
    <flow id="flow_E2N_light1" type="car" begin="0" end="1800" vehsPerHour="100" from="E2TL" to="TL2N" departLane="0" departSpeed="max"/>
    <flow id="flow_E2S_light1" type="car" begin="0" end="1800" vehsPerHour="100" from="E2TL" to="TL2S" departLane="3" departSpeed="max"/>
    <flow id="flow_W2N_light1" type="car" begin="0" end="1800" vehsPerHour="100" from="W2TL" to="TL2N" departLane="3" departSpeed="max"/>
    <flow id="flow_W2S_light1" type="car" begin="0" end="1800" vehsPerHour="100" from="W2TL" to="TL2S" departLane="0" departSpeed="max"/>
    <flow id="flow_N2E_light1" type="car" begin="0" end="1800" vehsPerHour="100" from="N2TL" to="TL2E" departLane="3" departSpeed="max"/>
    <flow id="flow_N2W_light1" type="car" begin="0" end="1800" vehsPerHour="100" from="N2TL" to="TL2W" departLane="0" departSpeed="max"/>
    <flow id="flow_S2E_light1" type="car" begin="0" end="1800" vehsPerHour="100" from="S2TL" to="TL2E" departLane="0" departSpeed="max"/>
    <flow id="flow_S2W_light1" type="car" begin="0" end="1800" vehsPerHour="100" from="S2TL" to="TL2W" departLane="3" departSpeed="max"/>


    <!-- Phase 2: Mid-day (1800 - 3600s) -->
    <!-- Moderate E->W -->
    <flow id="flow_E2W_mod2" type="car" begin="1800" end="3600" vehsPerHour="700" from="E2TL" to="TL2W" departLane="random" departSpeed="max"/>
    <!-- Moderate W->E -->
    <flow id="flow_W2E_mod2" type="car" begin="1800" end="3600" vehsPerHour="700" from="W2TL" to="TL2E" departLane="random" departSpeed="max"/>
    <!-- Moderate N->S -->
    <flow id="flow_N2S_mod2" type="car" begin="1800" end="3600" vehsPerHour="700" from="N2TL" to="TL2S" departLane="random" departSpeed="max"/>
    <!-- Moderate S->N -->
    <flow id="flow_S2N_mod2" type="car" begin="1800" end="3600" vehsPerHour="700" from="S2TL" to="TL2N" departLane="random" departSpeed="max"/>
    <!-- Moderate Turns -->
    <flow id="flow_Turns_mod2" type="car" begin="1800" end="3600" probability="0.1" from="E2TL,W2TL,N2TL,S2TL" to="TL2N,TL2S,TL2E,TL2W" departLane="random" departSpeed="max"/>


    <!-- Phase 3: Evening Rush (3600 - 5400s) -->
    <!-- Heavy W->E -->
    <flow id="flow_W2E_heavy" type="car" begin="3600" end="5400" vehsPerHour="1600" from="W2TL" to="TL2E" departLane="random" departSpeed="max"/>
     <!-- Moderate N->S -->
    <flow id="flow_N2S_mod3" type="car" begin="3600" end="5400" vehsPerHour="600" from="N2TL" to="TL2S" departLane="random" departSpeed="max"/>
    <!-- Moderate S->N -->
    <flow id="flow_S2N_mod3" type="car" begin="3600" end="5400" vehsPerHour="600" from="S2TL" to="TL2N" departLane="random" departSpeed="max"/>
    <!-- Light E->W -->
    <flow id="flow_E2W_light3" type="car" begin="3600" end="5400" vehsPerHour="300" from="E2TL" to="TL2W" departLane="random" departSpeed="max"/>
     <!-- Light Turns -->
    <flow id="flow_E2N_light3" type="car" begin="3600" end="5400" vehsPerHour="100" from="E2TL" to="TL2N" departLane="0" departSpeed="max"/>
    <flow id="flow_E2S_light3" type="car" begin="3600" end="5400" vehsPerHour="100" from="E2TL" to="TL2S" departLane="3" departSpeed="max"/>
    <flow id="flow_W2N_light3" type="car" begin="3600" end="5400" vehsPerHour="100" from="W2TL" to="TL2N" departLane="3" departSpeed="max"/>
    <flow id="flow_W2S_light3" type="car" begin="3600" end="5400" vehsPerHour="100" from="W2TL" to="TL2S" departLane="0" departSpeed="max"/>
    <flow id="flow_N2E_light3" type="car" begin="3600" end="5400" vehsPerHour="100" from="N2TL" to="TL2E" departLane="3" departSpeed="max"/>
    <flow id="flow_N2W_light3" type="car" begin="3600" end="5400" vehsPerHour="100" from="N2TL" to="TL2W" departLane="0" departSpeed="max"/>
    <flow id="flow_S2E_light3" type="car" begin="3600" end="5400" vehsPerHour="100" from="S2TL" to="TL2E" departLane="0" departSpeed="max"/>
    <flow id="flow_S2W_light3" type="car" begin="3600" end="5400" vehsPerHour="100" from="S2TL" to="TL2W" departLane="3" departSpeed="max"/>

</routes> 