<configuration>
    <input>
        <net-file value="environment.net.xml"/>
        <route-files value="episode_routes.rou.xml"/>
    </input>
    <time>
        <begin value="0"/>
    </time>
    <report>
        <verbose value="true"/>
        <no-step-log value="true"/>
    </report>
</configuration> 