<?xml version="1.0" encoding="UTF-8"?>
<tlLogics xmlns:xsi="http://www.w3.org/2001/XMLSchema-instance" xsi:noNamespaceSchemaLocation="http://sumo.dlr.de/xsd/tllogic_file.xsd">
    <tlLogic id="center" type="static" programID="0" offset="0">
        <!-- Phase 0: North-South straight and right green, others red -->
        <phase duration="31" state="GGGrrrrrGGGrrrrr"/>
        <!-- Phase 1: North-South yellow -->
        <phase duration="4" state="yyyrrrrryyyrrrrr"/>
        <!-- Phase 2: East-West straight and right green, others red -->
        <phase duration="31" state="rrrGGGrrrrrGGGrr"/>
        <!-- Phase 3: East-West yellow -->
        <phase duration="4" state="rrryyyrrrrryyyrr"/>
    </tlLogic>
</tlLogics> 